grid_TF_Wind/data/TYTFS2024_studyfiles/TYTFS2024_WP2024_V33.raw
0,   100.00, 33, 1, 1, 50.00     / PSS(R)E-33.10   TUE, SEP 30 2025  15:04
/ CASE: 2024/2025;  WINTER 31/12/2024; FORECAST STATEMENT 20
/ NEXT PLANET;  11:16:41  TUESDAY, SEPTEMBER 30, 2025 RATE 5
    10,'F_M         ',  38.0000,1,  11,  11,   1,1.06540, -10.7294,1.10000,0.90000,1.10000,0.90000
    11,'FMN LOOP    ',  38.0000,1,  11,  11,   1,1.07351,  -7.6664,1.10000,0.90000,1.10000,0.90000
    12,'BEDFORD ROW ',  38.0000,1,  11,  11,   1,1.06668, -12.8194,1.10000,0.90000,1.10000,0.90000
    13,'M_R         ',  38.0000,1,  11,  11,   1,1.08574, -12.9412,1.10000,0.90000,1.10000,0.90000
    14,'F_I         ',  38.0000,1,  11,  11,   1,1.09140, -10.8597,1.10000,0.90000,1.10000,0.90000
    15,'I_M         ',  38.0000,1,  11,  11,   1,1.09457, -10.8756,1.10000,0.90000,1.10000,0.90000
  1021,'ARDNACRUSHA ', 110.0000,1,   4,   4,   1,1.05000,   0.8727,1.10000,0.90000,1.10000,0.90000
  1041,'AGHADA      ', 110.0000,1,  10,  10,   2,1.06287,   9.5426,1.10000,0.90000,1.10000,0.90000
  1042,'AGHADA      ', 220.0000,1,  10,  10,   2,1.06000,  14.2057,1.10000,0.90000,1.10000,0.90000
  1052,'AGHADA_B    ', 220.0000,1,  10,  10,   2,1.06000,  14.2057,1.10000,0.90000,1.10000,0.90000
  1061,'ARIGNA      ', 110.0000,1,   1,   1,   3,1.05801, -12.8343,1.10000,0.90000,1.10000,0.90000
  1062,'AGH_AT14    ', 220.0000,1,  10,  10,   9,1.06000,  14.2057,1.10000,0.90000,1.10000,0.90000
  1071,'AGANNYGAL   ', 110.0000,1,   4,   4,   3,1.05616,  -0.4775,1.10000,0.90000,1.10000,0.90000
  1072,'AGHT2102    ', 220.0000,1,  10,  10,   2,1.05994,  14.1830,1.10000,0.90000,1.10000,0.90000
  1081,'AHANE       ', 110.0000,1,   8,   8,   2,1.05339,   1.4831,1.10000,0.90000,1.10000,0.90000
  1091,'ADAMSTOWN   ', 110.0000,1,  11,  11,   1,1.05337,  -9.0175,1.10000,0.90000,1.10000,0.90000
  1101,'ANNER       ', 110.0000,1,   8,   8,   6,1.05062,  -1.6577,1.10000,0.90000,1.10000,0.90000
  1121,'ARKLOW      ', 110.0000,1,   9,   9,   3,1.06776,  -4.0692,1.10000,0.90000,1.10000,0.90000
  1122,'ARKLOW      ', 220.0000,1,   9,   9,   3,1.05926,  -1.9912,1.10000,0.90000,1.10000,0.90000
  1131,'ATHEA       ', 110.0000,1,   5,   5,  17,1.08383,   5.2732,1.10000,0.90000,1.10000,0.90000
  1141,'ATHLONE     ', 110.0000,1,   3,   3,   3,1.05700,  -5.0698,1.10000,0.90000,1.10000,0.90000
  1161,'AUGHINISH   ', 110.0000,1,   5,   5,   2,1.05000,   5.6205,1.10000,0.90000,1.10000,0.90000
  1181,'ARVA        ', 110.0000,1,   7,   7,   3,1.04576, -14.0682,1.10000,0.90000,1.10000,0.90000
  1201,'ARTANE      ', 110.0000,1,  11,  11,   1,1.05770,  -5.1723,1.10000,0.90000,1.10000,0.90000
  1211,'BALLYVOUSKIL', 110.0000,1,   5,   5,   3,1.05000,   7.2244,1.10000,0.90000,1.10000,0.90000
  1212,'BALLYVOUSKIL', 220.0000,1,   5,   5,   3,1.05930,   7.2247,1.10000,0.90000,1.10000,0.90000
  1221,'ATHY        ', 110.0000,1,  11,  11,   3,1.04404,  -5.3608,1.10000,0.90000,1.10000,0.90000
  1231,'BALLYWATER  ', 110.0000,1,   9,   9,  17,1.07128,  -2.6873,1.10000,0.90000,1.10000,0.90000
  1251,'BOOLTIAGH   ', 110.0000,1,   4,   4,  17,1.06428,   0.9045,1.10000,0.90000,1.10000,0.90000
  1271,'BALTRASNA   ', 110.0000,1,   7,   7,   2,1.03811,  -9.4507,1.10000,0.90000,1.10000,0.90000
  1281,'BALLYLICKEY ', 110.0000,1,   6,   6,   3,1.05514,   4.3356,1.10000,0.90000,1.10000,0.90000
  1301,'BALLYBEG    ', 110.0000,1,   9,   9,   2,1.06337,  -5.0108,1.10000,0.90000,1.10000,0.90000
  1311,'CORDAL      ', 110.0000,1,   5,   5,  17,1.05189,   6.6692,1.10000,0.90000,1.10000,0.90000
  1321,'BLAKE       ', 110.0000,1,  11,  11,   2,1.04337,  -7.7000,1.10000,0.90000,1.10000,0.90000
  1331,'BLUNDELSTOWN', 110.0000,1,  11,  11,  23,1.05196,  -8.2728,1.10000,0.90000,1.10000,0.90000
  1341,'BINBANE     ', 110.0000,1,   1,   1,   3,1.04572, -19.8875,1.10000,0.90000,1.10000,0.90000
  1351,'BARODA      ', 110.0000,1,  11,  11,   6,1.04718,  -7.8597,1.10000,0.90000,1.10000,0.90000
  1361,'BALLYDINE   ', 110.0000,1,   8,   8,   3,1.04826,  -1.0713,1.10000,0.90000,1.10000,0.90000
  1371,'BARNAGEERAGH', 110.0000,1,  11,  11,   7,1.04435,  -7.7538,1.10000,0.90000,1.10000,0.90000
  1381,'BARNAHELY   ', 110.0000,1,  10,  10,   2,1.06057,   8.5292,1.10000,0.90000,1.10000,0.90000
  1401,'BELLACORICK ', 110.0000,1,   2,   2,   3,1.04721, -14.1802,1.10000,0.90000,1.10000,0.90000
  1411,'AIRTON      ', 110.0000,1,  11,  11,   7,1.06539,  -7.5105,1.10000,0.90000,1.10000,0.90000
  1421,'BLACKROCK   ', 110.0000,1,  11,  11,   1,1.06273,  -8.9565,1.10000,0.90000,1.10000,0.90000
  1431,'BALLYRAGGET ', 110.0000,1,   9,   9,   3,1.04868,  -5.8290,1.10000,0.90000,1.10000,0.90000
  1441,'BANDON      ', 110.0000,1,   6,   6,   2,1.05966,   5.4472,1.10000,0.90000,1.10000,0.90000
  1451,'CLOGHRAN    ', 110.0000,1,  11,  11,   7,1.04439,  -7.7461,1.10000,0.90000,1.10000,0.90000
  1461,'BARRYMORE   ', 110.0000,1,   8,   8,   2,1.05049,   4.1125,1.10000,0.90000,1.10000,0.90000
  1471,'BELCAMP     ', 110.0000,1,  11,  11,   7,1.04889,  -5.9709,1.10000,0.90000,1.10000,0.90000
  1472,'BELCAMP     ', 220.0000,1,  11,  11,   7,1.05954,  -2.0613,1.10000,0.90000,1.10000,0.90000
  1481,'BUTLERSTOWN ', 110.0000,1,  12,  12,   3,1.05025,  -0.0962,1.10000,0.90000,1.10000,0.90000
  1491,'DEENES      ', 110.0000,1,   7,   7,   1,1.03507, -10.3383,1.10000,0.90000,1.10000,0.90000
  1501,'BRINNY      ', 110.0000,1,   6,   6,   6,1.05954,   5.4391,1.10000,0.90000,1.10000,0.90000
  1511,'CLOGHBOOLA  ', 110.0000,1,   5,   5,  17,1.08579,   5.2423,1.10000,0.90000,1.10000,0.90000
  1521,'BOGTOWN     ', 110.0000,1,  11,  11,  17,1.06039,  -6.3006,1.10000,0.90000,1.10000,0.90000
  1522,'CLONEE      ', 220.0000,1,  11,  11,   7,1.06070,  -2.2864,1.10000,0.90000,1.10000,0.90000
  1531,'BALLYADAM   ', 110.0000,1,   9,   9,   3,1.05233,   7.7116,1.10000,0.90000,1.10000,0.90000
  1541,'BANOGE      ', 110.0000,1,   9,   9,   3,1.06828,  -3.4818,1.10000,0.90000,1.10000,0.90000
  1551,'BOGGERAGH   ', 110.0000,1,   5,   5,  17,1.05944,   6.2655,1.10000,0.90000,1.10000,0.90000
  1561,'COOLDERRIG  ', 110.0000,1,  11,  11,   7,1.05328,  -9.0986,1.10000,0.90000,1.10000,0.90000
  1571,'ARDNAGAPPARY', 110.0000,1,   1,   1,   3,1.03538, -21.6812,1.10000,0.90000,1.10000,0.90000
  1581,'CABRA       ', 110.0000,1,  11,  11,   1,1.05710,  -5.2168,1.10000,0.90000,1.10000,0.90000
  1601,'CLASHAVOON  ', 110.0000,1,   5,   5,   3,1.05864,   6.2743,1.10000,0.90000,1.10000,0.90000
  1602,'CLASHAVOON  ', 220.0000,1,   5,   5,   3,1.05757,   7.8313,1.10000,0.90000,1.10000,0.90000
  1611,'CLONKEEN    ', 110.0000,1,   5,   5,   3,1.04982,   3.6761,1.10000,0.90000,1.10000,0.90000
  1621,'COOLROE     ', 110.0000,1,  10,  10,   2,1.05466,   6.4405,1.10000,0.90000,1.10000,0.90000
  1631,'CORDERRY    ', 110.0000,1,   1,   1,   3,1.06008, -13.3226,1.10000,0.90000,1.10000,0.90000
  1641,'CASHLA      ', 110.0000,1,   2,   2,   2,1.07122,  -3.9033,1.10000,0.90000,1.10000,0.90000
  1642,'CASHLA      ', 220.0000,1,   2,   2,   2,1.06393,  -0.5528,1.10000,0.90000,1.10000,0.90000
  1651,'CLAHANE     ', 110.0000,1,   5,   5,  17,1.05654,   2.0410,1.10000,0.90000,1.10000,0.90000
  1661,'CASTLEBAR   ', 110.0000,1,   2,   2,   3,1.05000, -12.3502,1.10000,0.90000,1.10000,0.90000
  1671,'KILCUMBER   ', 110.0000,1,  11,  11,  17,1.06000,  -4.9756,1.10000,0.90000,1.10000,0.90000
  1681,'CARRIGADROHI', 110.0000,1,   6,   6,  21,1.05770,   6.2573,1.10000,0.90000,1.10000,0.90000
  1691,'CENTRAL PARK', 110.0000,1,  11,  11,   1,1.06079,  -5.7648,1.10000,0.90000,1.10000,0.90000
  1701,'CATH_FALL   ', 110.0000,1,   1,   1,   3,1.05000, -17.3136,1.10000,0.90000,1.10000,0.90000
  1711,'CROMCASTLE  ', 110.0000,1,  11,  11,   1,1.05482,  -6.5867,1.10000,0.90000,1.10000,0.90000
  1721,'CAHIR       ', 110.0000,1,   8,   8,   3,1.05742,  -1.2280,1.10000,0.90000,1.10000,0.90000
  1731,'CROMCASTLE  ', 110.0000,1,  11,  11,   1,1.05482,  -6.5867,1.10000,0.90000,1.10000,0.90000
  1741,'CARRICKMINES', 110.0000,1,  11,  11,   2,1.06076,  -5.7195,1.10000,0.90000,1.10000,0.90000
  1742,'CARRICKMINES', 220.0000,1,  11,  11,   2,1.05994,  -3.6908,1.10000,0.90000,1.10000,0.90000
  1761,'CLIFF       ', 110.0000,1,   1,   1,  13,1.05042, -17.1118,1.10000,0.90000,1.10000,0.90000
  1781,'CASTLEFARM  ', 110.0000,1,   5,   5,   6,1.04949,   5.6015,1.10000,0.90000,1.10000,0.90000
  1801,'COOKSTOWN   ', 110.0000,1,  11,  11,   2,1.05775,  -5.7030,1.10000,0.90000,1.10000,0.90000
  1810,'DARNDALE    ', 110.0000,1,  11,  11,   7,1.04855,  -6.0343,1.10000,0.90000,1.10000,0.90000
  1811,'CLUTTERLAND ', 110.0000,1,  11,  11,   7,1.05489,  -6.8031,1.10000,0.90000,1.10000,0.90000
  1821,'CLOON       ', 110.0000,1,   2,   2,   2,1.06394,  -7.4158,1.10000,0.90000,1.10000,0.90000
  1831,'SCREEB      ', 110.0000,1,   2,   2,   3,1.06781,  -6.8730,1.10000,0.90000,1.10000,0.90000
  1841,'CRANE       ', 110.0000,1,   9,   9,   3,1.06957,  -2.6558,1.10000,0.90000,1.10000,0.90000
  1851,'CHERRYWOOD  ', 110.0000,1,  11,  11,   6,1.05999,  -5.8120,1.10000,0.90000,1.10000,0.90000
  1861,'CARRICK ON S', 110.0000,1,   3,   3,   3,1.05562, -11.9473,1.10000,0.90000,1.10000,0.90000
  1871,'COLLEGE PARK', 110.0000,1,  11,  11,   1,1.04512,  -7.6767,1.10000,0.90000,1.10000,0.90000
  1881,'CHARLEVILLE ', 110.0000,1,   5,   5,   2,1.04189,   1.8844,1.10000,0.90000,1.10000,0.90000
  1901,'CARLOW      ', 110.0000,1,   9,   9,   3,1.05569,  -4.2261,1.10000,0.90000,1.10000,0.90000
  1921,'COW CROSS   ', 110.0000,1,  10,  10,   2,1.05870,   8.3340,1.10000,0.90000,1.10000,0.90000
  1931,'CUNGHILL    ', 110.0000,1,   2,   2,   3,1.05213, -14.5059,1.10000,0.90000,1.10000,0.90000
  1941,'CUSHALING   ', 110.0000,1,  11,  11,  12,1.06000,  -4.9756,1.10000,0.90000,1.10000,0.90000
  1951,'CARROWBEG   ', 110.0000,1,   2,   2,   3,1.04469, -13.0567,1.10000,0.90000,1.10000,0.90000
  1961,'CASTLEVIEW  ', 110.0000,1,  10,  10,   2,1.05389,   7.4268,1.10000,0.90000,1.10000,0.90000
  1971,'COOMAGEARLAH', 110.0000,1,   5,   5,  17,1.05186,   7.1451,1.10000,0.90000,1.10000,0.90000
  1981,'CORRACLASSY ', 110.0000,1,   1,   1,   3,1.04005, -16.2395,1.10000,0.90000,1.10000,0.90000
  1991,'CASTLEDOCKRE', 110.0000,1,   9,   9,  17,1.07050,  -1.9198,1.10000,0.90000,1.10000,0.90000
  2001,'CULLENAGH   ', 110.0000,1,  12,  12,   3,1.05388,   0.7610,1.10000,0.90000,1.10000,0.90000
  2002,'CULLENAGH   ', 220.0000,1,  12,  12,   3,1.05540,   4.9051,1.10000,0.90000,1.10000,0.90000
  2021,'CITY WEST   ', 110.0000,1,  11,  11,   2,1.03730, -10.1369,1.10000,0.90000,1.10000,0.90000
  2041,'CORDUFF     ', 110.0000,1,  11,  11,   1,1.04520,  -7.6233,1.10000,0.90000,1.10000,0.90000
  2042,'CORDUFF     ', 220.0000,1,  11,  11,   1,1.05870,  -1.9280,1.10000,0.90000,1.10000,0.90000
  2052,'CORDUFFB    ', 220.0000,1,  11,  11,   1,1.05870,  -1.9280,1.10000,0.90000,1.10000,0.90000
  2072,'CRUISERATH  ', 220.0000,1,  11,  11,   7,1.05832,  -1.8898,1.10000,0.90000,1.10000,0.90000
  2090,'KNOCKRANNY A', 110.0000,1,   2,   2,  25,1.06331,  -4.8269,1.10000,0.90000,1.10000,0.90000
  2091,'KNOCKRANNY  ', 110.0000,1,   2,   2,   3,1.07350,  -5.7716,1.10000,0.90000,1.10000,0.90000
  2101,'DUNDALK     ', 110.0000,1,   7,   7,   3,1.04528, -11.1010,1.10000,0.90000,1.10000,0.90000
  2111,'UGGOOL      ', 110.0000,1,   2,   2,  17,1.06340,  -4.8277,1.10000,0.90000,1.10000,0.90000
  2121,'DRUMLINE    ', 110.0000,1,   4,   4,   2,1.05378,  -0.6563,1.10000,0.90000,1.10000,0.90000
  2131,'DROMADA     ', 110.0000,1,   5,   5,  17,1.08401,   5.2711,1.10000,0.90000,1.10000,0.90000
  2141,'DUNGARVAN   ', 110.0000,1,  12,  12,   3,1.04332,   1.8936,1.10000,0.90000,1.10000,0.90000
  2161,'DOON        ', 110.0000,1,   8,   8,   3,1.05149,  -1.6187,1.10000,0.90000,1.10000,0.90000
  2171,'KNOCKALOUGH ', 110.0000,1,   2,   2,  18,1.07436,  -5.7799,1.10000,0.90000,1.10000,0.90000
  2181,'DRYBRIDGE   ', 110.0000,1,   7,   7,   2,1.03245, -11.1295,1.10000,0.90000,1.10000,0.90000
  2202,'DUNSTOWN    ', 220.0000,1,  11,  11,   1,1.05565,  -2.2831,1.10000,0.90000,1.10000,0.90000
  2204,'DUNSTOWN    ', 380.0000,1,  11,  11,   1,1.04765,  -0.1053,1.10000,0.90000,1.10000,0.90000
  2221,'DUNMANWAY   ', 110.0000,1,   6,   6,   3,1.05897,   5.0075,1.10000,0.90000,1.10000,0.90000
  2225,'DUNMANWAY   ', 110.0000,1,   6,   6,   3,1.05897,   5.0075,1.10000,0.90000,1.10000,0.90000
  2231,'DERRYBRIEN  ', 110.0000,1,   4,   4,  17,1.05620,  -0.4784,1.10000,0.90000,1.10000,0.90000
  2241,'DALLOW      ', 110.0000,1,   8,   8,   3,1.04391,  -1.4403,1.10000,0.90000,1.10000,0.90000
  2251,'DARDISTOWN  ', 110.0000,1,  11,  11,   6,1.05546,  -6.5495,1.10000,0.90000,1.10000,0.90000
  2261,'DERRYIRON   ', 110.0000,1,  11,  11,  11,1.05471,  -8.3021,1.10000,0.90000,1.10000,0.90000
  2281,'DALTON_A1   ', 110.0000,1,   2,   2,   3,1.04667, -10.5182,1.10000,0.90000,1.10000,0.90000
  2301,'DUNFIRTH    ', 110.0000,1,  11,  11,   2,1.05075,  -8.3661,1.10000,0.90000,1.10000,0.90000
  2321,'DRUMKEEN    ', 110.0000,1,   1,   1,   3,1.04361, -21.9976,1.10000,0.90000,1.10000,0.90000
  2361,'ENNIS       ', 110.0000,1,   4,   4,   2,1.05736,  -1.1269,1.10000,0.90000,1.10000,0.90000
  2391,'KILL HILL   ', 110.0000,1,   8,   8,  17,1.05417,  -1.8976,1.10000,0.90000,1.10000,0.90000
  2401,'MOUNT LUCAS ', 110.0000,1,  11,  11,  17,1.05959,  -6.2801,1.10000,0.90000,1.10000,0.90000
  2421,'CORKAGH     ', 110.0000,1,  11,  11,   7,1.05478,  -6.8270,1.10000,0.90000,1.10000,0.90000
  2481,'FASS EAST   ', 110.0000,1,  11,  11,   2,1.05456,  -5.8727,1.10000,0.90000,1.10000,0.90000
  2491,'FASS WEST   ', 110.0000,1,  11,  11,   2,1.05476,  -5.8533,1.10000,0.90000,1.10000,0.90000
  2521,'FLAGFORD    ', 110.0000,1,   2,   2,   3,1.05703, -11.6942,1.10000,0.90000,1.10000,0.90000
  2522,'FLAGFORD    ', 220.0000,1,   2,   2,   3,1.05092,  -8.0594,1.10000,0.90000,1.10000,0.90000
  2541,'FRN ST A    ', 110.0000,1,  11,  11,   1,1.06427,  -8.9599,1.10000,0.90000,1.10000,0.90000
  2551,'FRN ST B    ', 110.0000,1,  11,  11,   1,1.06612,  -7.4428,1.10000,0.90000,1.10000,0.90000
  2561,'FIN_URBAN   ', 110.0000,1,  11,  11,   1,1.05885,  -4.9938,1.10000,0.90000,1.10000,0.90000
  2562,'FINGLAS     ', 220.0000,1,  11,  11,   1,1.06000,  -1.9715,1.10000,0.90000,1.10000,0.90000
  2563,'FINGLAS220B ', 220.0000,1,  11,  11,   1,1.06000,  -1.9715,1.10000,0.90000,1.10000,0.90000
  2571,'FIN_RURAL   ', 110.0000,1,  11,  11,   1,1.05599,  -6.3473,1.10000,0.90000,1.10000,0.90000
  2581,'FINGLAS B5  ', 110.0000,1,  11,  11,   1,1.04536,  -7.6804,1.10000,0.90000,1.10000,0.90000
  2591,'FORTUNESTOWN', 110.0000,1,  11,  11,   1,1.03636, -10.1612,1.10000,0.90000,1.10000,0.90000
  2671,'GARVAGH     ', 110.0000,1,   1,   1,   3,1.06207, -13.3440,1.10000,0.90000,1.10000,0.90000
  2681,'GILRA       ', 110.0000,1,   3,   3,   6,1.05901, -12.0000,1.10000,0.90000,1.10000,0.90000
  2691,'GARBALLAGH  ', 110.0000,1,   7,   7,  23,1.03305, -10.8980,1.10000,0.90000,1.10000,0.90000
  2701,'GLASMORE    ', 110.0000,1,  11,  11,   2,1.03594,  -7.6439,1.10000,0.90000,1.10000,0.90000
  2721,'GRIFFINRATH ', 110.0000,1,  11,  11,   2,1.05358,  -7.3555,1.10000,0.90000,1.10000,0.90000
  2731,'GLANLEE     ', 110.0000,1,   5,   5,  17,1.05187,   7.1444,1.10000,0.90000,1.10000,0.90000
  2741,'GREAT ISLAND', 110.0000,1,   9,   9,   3,1.05526,  -0.0139,1.10000,0.90000,1.10000,0.90000
  2742,'GREAT ISLAND', 220.0000,1,   9,   9,   3,1.06000,   4.4914,1.10000,0.90000,1.10000,0.90000
  2761,'GRANGE      ', 110.0000,1,  11,  11,   1,1.05413,  -6.6334,1.10000,0.90000,1.10000,0.90000
  2771,'GARROW      ', 110.0000,1,   5,   5,  17,1.05049,   7.2016,1.10000,0.90000,1.10000,0.90000
  2781,'GALWAY      ', 110.0000,1,   2,   2,   1,1.06565,  -4.8474,1.10000,0.90000,1.10000,0.90000
  2791,'GALLANSTOWN ', 110.0000,1,  11,  11,  23,1.04147,  -8.5699,1.10000,0.90000,1.10000,0.90000
  2801,'GOLAGH      ', 110.0000,1,   1,   1,  17,1.05448, -19.6687,1.10000,0.90000,1.10000,0.90000
  2821,'GORTAWEE    ', 110.0000,1,   1,   1,   3,1.04087, -16.1404,1.10000,0.90000,1.10000,0.90000
  2841,'GORMAN      ', 110.0000,1,   7,   7,   3,1.03270, -10.9675,1.10000,0.90000,1.10000,0.90000
  2842,'GORMAN      ', 220.0000,1,   7,   7,   3,1.04211,  -6.9786,1.10000,0.90000,1.10000,0.90000
  2852,'GLANAGOW    ', 220.0000,1,  10,  10,   9,1.06000,  14.2573,1.10000,0.90000,1.10000,0.90000
  2861,'GRANGE CASTL', 110.0000,1,  11,  11,   1,1.05333,  -9.0798,1.10000,0.90000,1.10000,0.90000
  2870,'CLOGHER     ', 110.0000,1,   1,   1,   3,1.05454, -19.6503,1.10000,0.90000,1.10000,0.90000
  2871,'CLOGHER     ', 110.0000,1,   1,   1,   3,1.05454, -19.6503,1.10000,0.90000,1.10000,0.90000
  2881,'GLENLARA    ', 110.0000,1,   5,   5,   3,1.03294,   1.2178,1.10000,0.90000,1.10000,0.90000
  2941,'HAROLDS CROS', 110.0000,1,  11,  11,   1,1.06437,  -8.9378,1.10000,0.90000,1.10000,0.90000
  2951,'HEUSTON SQUA', 110.0000,1,  11,  11,   1,1.06624,  -7.4247,1.10000,0.90000,1.10000,0.90000
  2962,'HUNTSTOWN   ', 220.0000,1,  11,  11,   9,1.06023,  -1.8630,1.10000,0.90000,1.10000,0.90000
  2972,'HUNTSTOWN 2 ', 220.0000,1,  11,  11,   9,1.05873,  -1.6383,1.10000,0.90000,1.10000,0.90000
  3061,'INISCARRA   ', 110.0000,1,   6,   6,  13,1.05524,   6.4838,1.10000,0.90000,1.10000,0.90000
  3081,'INCH_CITY   ', 110.0000,1,  11,  11,   1,1.06653,  -7.3679,1.10000,0.90000,1.10000,0.90000
  3082,'INCHICORE   ', 220.0000,1,  11,  11,   1,1.06206,  -4.6963,1.10000,0.90000,1.10000,0.90000
  3091,'INCH_COUNTRY', 110.0000,1,  11,  11,   1,1.05473,  -8.8756,1.10000,0.90000,1.10000,0.90000
  3101,'IKERRIN     ', 110.0000,1,   8,   8,   3,1.04538,  -2.4539,1.10000,0.90000,1.10000,0.90000
  3122,'IRISHTOWN   ', 220.0000,1,  11,  11,   1,1.05993,  -3.3339,1.10000,0.90000,1.10000,0.90000
  3190,'KNOCKANURE  ', 110.0000,1,   5,   5,   3,1.05958,   2.5556,1.10000,0.90000,1.10000,0.90000
  3191,'KNOCKANURE  ', 110.0000,1,   5,   5,   3,1.08239,   5.2884,1.10000,0.90000,1.10000,0.90000
  3192,'KNOCKANURE  ', 220.0000,1,   5,   5,   3,1.07479,   5.2950,1.10000,0.90000,1.10000,0.90000
  3201,'KNOCKRAHA   ', 110.0000,1,  10,  10,   2,1.05578,   7.3526,1.10000,0.90000,1.10000,0.90000
  3202,'KNOCKRAHA   ', 220.0000,1,  10,  10,   2,1.05640,  11.2070,1.10000,0.90000,1.10000,0.90000
  3203,'KNOCKRAHA   ', 220.0000,1,  10,  10,   2,1.05640,  11.2070,1.10000,0.90000,1.10000,0.90000
  3209,'KNOCKRAHA   ', 110.0000,1,  10,  10,   2,1.05578,   7.3526,1.10000,0.90000,1.10000,0.90000
  3221,'KILBARRY    ', 110.0000,1,  10,  10,   3,1.05352,   6.5126,1.10000,0.90000,1.10000,0.90000
  3241,'KILTEEL     ', 110.0000,1,  11,  11,   2,1.05480,  -8.4370,1.10000,0.90000,1.10000,0.90000
  3251,'REAMORE     ', 110.0000,1,   5,   5,  19,1.05402,   1.6533,1.10000,0.90000,1.10000,0.90000
  3261,'KILKENNY    ', 110.0000,1,   9,   9,   3,1.05661,  -5.0062,1.10000,0.90000,1.10000,0.90000
  3271,'KISHOGE     ', 110.0000,1,  11,  11,   7,1.05495,  -6.8014,1.10000,0.90000,1.10000,0.90000
  3281,'KILLONAN    ', 110.0000,1,   8,   8,   2,1.05358,   1.5156,1.10000,0.90000,1.10000,0.90000
  3282,'KILLONAN    ', 220.0000,1,   8,   8,   2,1.04752,   3.9422,1.10000,0.90000,1.10000,0.90000
  3301,'KNOCKEARAGH ', 110.0000,1,   5,   5,   3,1.04432,   1.8785,1.10000,0.90000,1.10000,0.90000
  3321,'KNOCKUMBER  ', 110.0000,1,   7,   7,   6,1.02488, -11.5371,1.10000,0.90000,1.10000,0.90000
  3330,'BALLYNAHULLA', 110.0000,1,   5,   5,   3,1.05000,   6.6883,1.10000,0.90000,1.10000,0.90000
  3331,'BALLYNAHULLA', 110.0000,1,   5,   5,   3,1.05000,   6.6883,1.10000,0.90000,1.10000,0.90000
  3332,'BALLYNAHULLA', 220.0000,1,   5,   5,   3,1.06192,   6.6874,1.10000,0.90000,1.10000,0.90000
  3341,'KELLIS      ', 110.0000,1,   9,   9,   3,1.06174,  -3.8797,1.10000,0.90000,1.10000,0.90000
  3342,'KELLIS      ', 220.0000,1,   9,   9,   3,1.04557,  -0.6296,1.10000,0.90000,1.10000,0.90000
  3352,'KELLYSTOWN  ', 220.0000,1,  11,  11,   6,1.06058,  -3.5245,1.10000,0.90000,1.10000,0.90000
  3381,'KINNEGAD    ', 110.0000,1,  11,  11,   6,1.05583,  -9.0936,1.10000,0.90000,1.10000,0.90000
  3391,'KNOCKACUMMER', 110.0000,1,   5,   5,  17,1.05906,   6.5657,1.10000,0.90000,1.10000,0.90000
  3401,'KILLOTERAN  ', 110.0000,1,  12,  12,   3,1.05086,  -0.1173,1.10000,0.90000,1.10000,0.90000
...
0 / END OF BUS DATA, BEGIN LOAD DATA
    10,'LD',1,  11,   1,    76.210,     1.870,     0.000,     0.000,     0.000,     0.000,   2,1,0
    11,'LD',1,  11,   1,    34.800,     0.230,     0.000,     0.000,     0.000,     0.000,   2,1,0
    12,'LD',1,  11,   1,    50.470,     0.080,     0.000,     0.000,     0.000,     0.000,   2,1,0
    13,'LD',1,  11,   1,    54.260,    -1.080,     0.000,     0.000,     0.000,     0.000,   2,1,0
    14,'LD',1,  11,   1,    49.980,     1.240,     0.000,     0.000,     0.000,     0.000,   2,1,0
    15,'LD',1,  11,   1,    57.310,    -3.530,     0.000,     0.000,     0.000,     0.000,   2,1,0
  1101,'I ',1,   8,   2,    14.000,     6.900,     0.000,     0.000,     0.000,     0.000,   5,0,0
  1101,'MI',0,   8,   2,     1.330,     0.100,     0.000,     0.000,     0.000,     0.000,   5,0,0
  4341,'I ',1,  10,   2,     0.300,     0.100,     0.000,     0.000,     0.000,     0.000,   5,0,0
 10204,'LD',1,   4,   1,    42.000,     4.830,     0.000,     0.000,     0.000,     0.000,   2,1,0
 10205,'LD',1,   4,   1,    30.490,     1.080,     0.000,     0.000,     0.000,     0.000,   2,1,0
 10602,'LD',1,   1,   1,     4.920,     0.030,     0.000,     0.000,     0.000,     0.000,   2,1,0
 10801,'LD',1,   8,   1,     5.120,     0.090,     0.000,     0.000,     0.000,     0.000,   2,1,0
 10902,'I ',1,  11,   2,     9.500,     3.120,     0.000,     0.000,     0.000,     0.000,   5,0,0
 10902,'LD',1,  11,   1,     9.670,     0.970,     0.000,     0.000,     0.000,     0.000,   2,1,0
 10902,'MI',0,  11,   2,     0.500,     0.000,     0.000,     0.000,     0.000,     0.000,   5,0,0
 11201,'LD',1,   9,   1,     9.530,     0.700,     0.000,     0.000,     0.000,     0.000,   2,1,0
 11204,'LD',1,   9,   1,    31.910,    -3.090,     0.000,     0.000,     0.000,     0.000,   2,1,0
 11404,'LD',1,   3,   1,    75.710,     7.840,     0.000,     0.000,     0.000,     0.000,   2,1,0
 12001,'LD',1,  11,   1,    17.590,     0.000,     0.000,     0.000,     0.000,     0.000,   2,1,0
 12201,'LD',1,  11,   1,    22.450,     4.390,     0.000,     0.000,     0.000,     0.000,   2,1,0
 12702,'LD',1,   7,   1,    15.660,    -0.660,     0.000,     0.000,     0.000,     0.000,   2,1,0
 12804,'LD',1,   6,   1,    13.100,     1.060,     0.000,     0.000,     0.000,     0.000,   2,1,0
 13001,'LD',1,   9,   1,    15.760,    -0.150,     0.000,     0.000,     0.000,     0.000,   2,1,0
 13204,'LD',1,  11,   1,    26.280,     1.230,     0.000,     0.000,     0.000,     0.000,   2,1,0
 13404,'LD',1,   1,   1,    18.710,     0.140,     0.000,     0.000,     0.000,     0.000,   2,1,0
 13501,'I ',1,  11,   2,     5.260,     0.820,     0.000,     0.000,     0.000,     0.000,   5,0,0
 13501,'MI',0,  11,   2,     4.240,     2.180,     0.000,     0.000,     0.000,     0.000,   5,0,0
 13601,'I ',1,   8,   2,     5.990,     1.670,     0.000,     0.000,     0.000,     0.000,   5,0,0
 13601,'MI',0,   8,   2,     3.220,     1.330,     0.000,     0.000,     0.000,     0.000,   5,0,0
 13604,'LD',1,   8,   1,    10.730,     1.840,     0.000,     0.000,     0.000,     0.000,   2,1,0
 13702,'I ',1,  11,   2,    14.910,     1.640,     0.000,     0.000,     0.000,     0.000,   5,0,0
 13702,'MI',0,  11,   2,    26.840,     2.950,     0.000,     0.000,     0.000,     0.000,   5,0,0
 13802,'LD',1,  10,   1,    25.800,     4.120,     0.000,     0.000,     0.000,     0.000,   2,1,0
 13804,'LD',1,  10,   1,     8.600,     1.370,     0.000,     0.000,     0.000,     0.000,   2,1,0
 13812,'LD',1,  10,   1,     4.780,     0.760,     0.000,     0.000,     0.000,     0.000,   2,1,0
 14004,'LD',1,   2,   1,     5.260,    -0.440,     0.000,     0.000,     0.000,     0.000,   2,1,0
 14102,'I ',1,  11,   2,    56.940,     2.550,     0.000,     0.000,     0.000,     0.000,   5,0,0
 14102,'MI',0,  11,   2,     9.560,     0.430,     0.000,     0.000,     0.000,     0.000,   5,0,0
 14204,'LD',1,  11,   1,    62.490,    17.870,     0.000,     0.000,     0.000,     0.000,   2,1,0
 14304,'LD',1,   9,   1,    23.590,     5.120,     0.000,     0.000,     0.000,     0.000,   2,1,0
 14401,'LD',1,   6,   1,    12.160,     1.470,     0.000,     0.000,     0.000,     0.000,   2,1,0
 14404,'LD',1,   6,   1,    34.630,     4.880,     0.000,     0.000,     0.000,     0.000,   2,1,0
 14502,'I ',1,  11,   2,    71.000,     9.500,     0.000,     0.000,     0.000,     0.000,   5,0,0
 14502,'MI',0,  11,   2,    14.500,     2.050,     0.000,     0.000,     0.000,     0.000,   5,0,0
 14604,'LD',1,   8,   1,    31.460,     2.250,     0.000,     0.000,     0.000,     0.000,   2,1,0
 14804,'LD',1,  12,   1,    42.290,     4.360,     0.000,     0.000,     0.000,     0.000,   2,1,0
 15001,'I ',1,   6,   2,     3.950,     0.980,     0.000,     0.000,     0.000,     0.000,   5,0,0
 15001,'MI',0,   6,   2,     2.220,     1.020,     0.000,     0.000,     0.000,     0.000,   5,0,0
 15202,'I ',1,  11,   2,   127.740,     8.090,     0.000,     0.000,     0.000,     0.000,   5,0,0
 15202,'MI',0,  11,   2,    21.950,     1.390,     0.000,     0.000,     0.000,     0.000,   5,0,0
 15402,'LD',1,   9,   1,     7.740,     0.000,     0.000,     0.000,     0.000,     0.000,   2,1,0
 15602,'I ',1,  11,   2,    30.000,     0.000,     0.000,     0.000,     0.000,     0.000,   5,0,0
 15602,'MI',0,  11,   2,    15.000,     0.000,     0.000,     0.000,     0.000,     0.000,   5,0,0
 15704,'LD',1,   1,   1,     9.670,     1.930,     0.000,     0.000,     0.000,     0.000,   2,1,0
 15801,'LD',1,  11,   1,    13.210,     3.820,     0.000,     0.000,     0.000,     0.000,   2,1,0
 16202,'LD',1,  10,   1,    10.890,     0.000,     0.000,     0.000,     0.000,     0.000,   2,1,0
 16604,'LD',1,   2,   1,    29.850,     2.380,     0.000,     0.000,     0.000,     0.000,   2,1,0
 16901,'LD',1,  11,   1,     9.670,    -0.490,     0.000,     0.000,     0.000,     0.000,   2,1,0
 17004,'LD',1,   1,   1,    17.040,     3.940,     0.000,     0.000,     0.000,     0.000,   2,1,0
 17204,'LD',1,   8,   1,    26.870,     3.580,     0.000,     0.000,     0.000,     0.000,   2,1,0
 17404,'LD',1,  11,   1,    67.690,     2.780,     0.000,     0.000,     0.000,     0.000,   2,1,0
 17802,'I ',1,   5,   2,    50.800,    24.520,     0.000,     0.000,     0.000,     0.000,   5,0,0
 18001,'LD',1,  11,   1,    14.960,     1.160,     0.000,     0.000,     0.000,     0.000,   2,1,0
 18004,'LD',1,  11,   1,    60.700,    17.690,     0.000,     0.000,     0.000,     0.000,   2,1,0
 18101,'I ',1,  11,   2,   117.290,    12.910,     0.000,     0.000,     0.000,     0.000,   5,0,0
 18101,'MI',0,  11,   2,    23.860,     2.620,     0.000,     0.000,     0.000,     0.000,   5,0,0
 18102,'I ',1,  11,   2,    37.920,     2.400,     0.000,     0.000,     0.000,     0.000,   5,0,0
 18102,'MI',0,  11,   2,    86.830,     5.500,     0.000,     0.000,     0.000,     0.000,   5,0,0
 18204,'LD',1,   2,   1,    27.310,     4.060,     0.000,     0.000,     0.000,     0.000,   2,1,0
 18304,'LD',1,   2,   1,    20.240,     0.630,     0.000,     0.000,     0.000,     0.000,   2,1,0
 18402,'LD',1,   9,   1,    12.820,     0.540,     0.000,     0.000,     0.000,     0.000,   2,1,0
 18404,'LD',1,   9,   1,    26.000,     2.950,     0.000,     0.000,     0.000,     0.000,   2,1,0
 18504,'LD',1,  11,   1,    22.200,     0.400,     0.000,     0.000,     0.000,     0.000,   2,1,0
 18604,'LD',1,   3,   1,    29.730,     2.130,     0.000,     0.000,     0.000,     0.000,   2,1,0
 18701,'LD',1,  11,   1,    23.050,     0.800,     0.000,     0.000,     0.000,     0.000,   2,1,0
 18804,'LD',1,   5,   1,    21.590,     3.570,     0.000,     0.000,     0.000,     0.000,   2,1,0
 19004,'LD',1,   9,   1,    65.540,     5.790,     0.000,     0.000,     0.000,     0.000,   2,1,0
 19204,'LD',1,  10,   1,    16.440,     0.780,     0.000,     0.000,     0.000,     0.000,   2,1,0
 19504,'LD',1,   2,   1,    17.020,     1.460,     0.000,     0.000,     0.000,     0.000,   2,1,0
 19601,'LD',1,  10,   1,    28.710,     2.550,     0.000,     0.000,     0.000,     0.000,   2,1,0
 20201,'LD',1,  11,   1,    13.440,     3.900,     0.000,     0.000,     0.000,     0.000,   2,1,0
 20402,'LD',1,  11,   1,    33.410,     4.220,     0.000,     0.000,     0.000,     0.000,   2,1,0
 20701,'I ',1,  11,   2,    66.930,     3.000,     0.000,     0.000,     0.000,     0.000,   5,0,0
 20701,'MI',0,  11,   2,   172.830,     7.730,     0.000,     0.000,     0.000,     0.000,   5,0,0
 21004,'LD',1,   7,   1,    60.050,     4.160,     0.000,     0.000,     0.000,     0.000,   2,1,0
 21204,'LD',1,   4,   1,    26.490,     3.970,     0.000,     0.000,     0.000,     0.000,   2,1,0
 21404,'LD',1,  12,   1,    46.160,     4.710,     0.000,     0.000,     0.000,     0.000,   2,1,0
 21604,'LD',1,   8,   1,    28.410,     3.320,     0.000,     0.000,     0.000,     0.000,   2,1,0
 21804,'LD',1,   7,   1,    89.750,     4.470,     0.000,     0.000,     0.000,     0.000,   2,1,0
 22208,'LD',1,   6,   1,    35.320,     3.420,     0.000,     0.000,     0.000,     0.000,   2,1,0
 22404,'LD',1,   8,   1,    19.440,     1.790,     0.000,     0.000,     0.000,     0.000,   2,1,0
 22501,'LD',1,  11,   1,     9.670,     2.230,     0.000,     0.000,     0.000,     0.000,   2,1,0
 22804,'LD',1,   2,   1,    29.140,     3.860,     0.000,     0.000,     0.000,     0.000,   2,1,0
 23002,'LD',1,  11,   1,    10.080,     0.020,     0.000,     0.000,     0.000,     0.000,   2,1,0
 23601,'LD',1,   4,   1,    13.540,     0.970,     0.000,     0.000,     0.000,     0.000,   2,1,0
 23604,'LD',1,   4,   1,    51.360,     5.710,     0.000,     0.000,     0.000,     0.000,   2,1,0
 24202,'I ',1,  11,   2,   124.880,     5.590,     0.000,     0.000,     0.000,     0.000,   5,0,0
 24202,'MI',0,  11,   2,    58.940,     2.640,     0.000,     0.000,     0.000,     0.000,   5,0,0
 24804,'LD',1,  11,   1,    59.470,     0.150,     0.000,     0.000,     0.000,     0.000,   2,1,0
 25604,'LD',1,  11,   1,    55.870,     4.060,     0.000,     0.000,     0.000,     0.000,   2,1,0
 25901,'LD',1,  11,   1,    15.150,     0.480,     0.000,     0.000,     0.000,     0.000,   2,1,0
 26802,'I ',1,   3,   2,    11.420,     2.830,     0.000,     0.000,     0.000,     0.000,   5,0,0
 27004,'LD',1,  11,   1,    69.250,    19.720,     0.000,     0.000,     0.000,     0.000,   2,1,0
 27204,'LD',1,  11,   1,    67.690,     2.210,     0.000,     0.000,     0.000,     0.000,   2,1,0
 27404,'LD',1,   9,   1,    19.820,     3.300,     0.000,     0.000,     0.000,     0.000,   2,1,0
 27604,'LD',1,  11,   1,    57.720,    12.350,     0.000,     0.000,     0.000,     0.000,   2,1,0
 27801,'LD',1,   2,   1,    13.280,     0.730,     0.000,     0.000,     0.000,     0.000,   2,1,0
 27804,'LD',1,   2,   1,    76.390,     6.350,     0.000,     0.000,     0.000,     0.000,   2,1,0
 28201,'I ',1,   1,   2,    22.800,     7.490,     0.000,     0.000,     0.000,     0.000,   5,0,0
 28204,'LD',1,   1,   1,    10.640,     1.930,     0.000,     0.000,     0.000,     0.000,   2,1,0
 28601,'LD',1,  11,   1,    19.170,     0.080,     0.000,     0.000,     0.000,     0.000,   2,1,0
 28604,'LD',1,  11,   1,    43.630,    -0.870,     0.000,     0.000,     0.000,     0.000,   2,1,0
 28804,'LD',1,   5,   1,    14.360,     2.910,     0.000,     0.000,     0.000,     0.000,   2,1,0
 29401,'LD',1,  11,   1,    18.640,     5.420,     0.000,     0.000,     0.000,     0.000,   2,1,0
 29501,'LD',1,  11,   1,     9.670,     0.440,     0.000,     0.000,     0.000,     0.000,   2,1,0
 30804,'LD',1,  11,   1,    55.880,    -0.520,     0.000,     0.000,     0.000,     0.000,   2,1,0
 31004,'LD',1,   8,   1,    25.850,     3.580,     0.000,     0.000,     0.000,     0.000,   2,1,0
 32201,'LD',1,  10,   1,    14.670,     0.340,     0.000,     0.000,     0.000,     0.000,   2,1,0
 32204,'LD',1,  10,   1,    70.540,     2.720,     0.000,     0.000,     0.000,     0.000,   2,1,0
 32404,'LD',1,  11,   1,    34.100,     4.460,     0.000,     0.000,     0.000,     0.000,   2,1,0
 32604,'LD',1,   9,   1,    51.340,     6.180,     0.000,     0.000,     0.000,     0.000,   2,1,0
 32702,'I ',1,  11,   2,     2.970,     0.420,     0.000,     0.000,     0.000,     0.000,   5,0,0
 32702,'MI',0,  11,   2,    44.550,     6.350,     0.000,     0.000,     0.000,     0.000,   5,0,0
 33004,'LD',1,   5,   1,    41.320,     4.800,     0.000,     0.000,     0.000,     0.000,   2,1,0
 33201,'I ',1,   7,   2,    23.660,    10.990,     0.000,     0.000,     0.000,     0.000,   5,0,0
 33201,'MI',0,   7,   2,     4.550,     1.810,     0.000,     0.000,     0.000,     0.000,   5,0,0
 33502,'I ',1,  11,   2,   116.850,    38.410,     0.000,     0.000,     0.000,     0.000,   5,0,0
 33502,'MI',0,  11,   2,    77.900,    25.600,     0.000,     0.000,     0.000,     0.000,   5,0,0
 33801,'I ',1,  11,   2,    10.190,     2.440,     0.000,     0.000,     0.000,     0.000,   5,0,0
 33801,'MI',0,  11,   2,     1.530,     1.560,     0.000,     0.000,     0.000,     0.000,   5,0,0
 34001,'LD',1,  12,   1,    10.660,     1.750,     0.000,     0.000,     0.000,     0.000,   2,1,0
 34301,'I ',1,  11,   2,    29.610,     4.820,     0.000,     0.000,     0.000,     0.000,   5,0,0
 34301,'MI',0,  11,   2,    13.820,     2.250,     0.000,     0.000,     0.000,     0.000,   5,0,0
 35004,'LD',1,   3,   1,    17.860,     1.580,     0.000,     0.000,     0.000,     0.000,   2,1,0
 35404,'LD',1,   5,   1,    80.740,     5.820,     0.000,     0.000,     0.000,     0.000,   2,1,0
 35604,'LD',1,   7,   1,    34.850,     7.260,     0.000,     0.000,     0.000,     0.000,   2,1,0
 35804,'LD',1,   1,   1,    66.080,     7.240,     0.000,     0.000,     0.000,     0.000,   2,1,0
 36001,'LD',1,  10,   1,    23.210,     1.630,     0.000,     0.000,     0.000,     0.000,   2,1,0
 36503,'I ',1,  11,   2,    18.000,     0.000,     0.000,     0.000,     0.000,     0.000,   5,0,0
 36503,'MI',0,  11,   2,    32.000,     0.000,     0.000,     0.000,     0.000,     0.000,   5,0,0
 36802,'I ',1,  11,   2,    13.980,     1.090,     0.000,     0.000,     0.000,     0.000,   5,0,0
 36802,'MI',0,  11,   2,    65.780,     5.100,     0.000,     0.000,     0.000,     0.000,   5,0,0
 37501,'LD',1,  11,   1,    18.380,    -0.400,     0.000,     0.000,     0.000,     0.000,   2,1,0
 37601,'LD',1,  11,   1,    20.600,    -0.150,     0.000,     0.000,     0.000,     0.000,   2,1,0
 37602,'I ',1,  11,   2,     4.580,     0.550,     0.000,     0.000,     0.000,     0.000,   5,0,0
 37602,'MI',0,  11,   2,     5.860,     2.450,     0.000,     0.000,     0.000,     0.000,   5,0,0
 38001,'LD',1,  10,   1,    15.070,     1.230,     0.000,     0.000,     0.000,     0.000,   2,1,0
 38004,'LD',1,  10,   1,    27.890,     3.350,     0.000,     0.000,     0.000,     0.000,   2,1,0
 38204,'LD',1,   7,   1,    52.220,    10.150,     0.000,     0.000,     0.000,     0.000,   2,1,0
 38601,'LD',1,  11,   1,     8.310,    -0.200,     0.000,     0.000,     0.000,     0.000,   2,1,0
 38701,'LD',1,  11,   1,    12.420,    -0.290,     0.000,     0.000,     0.000,     0.000,   2,1,0
 38804,'LD',1,   6,   1,    18.370,    10.530,     0.000,     0.000,     0.000,     0.000,   2,1,0
 39601,'LD',1,  10,   1,    19.340,     0.800,     0.000,     0.000,     0.000,     0.000,   2,1,0
 39801,'I ',1,   5,   2,    21.500,    12.100,     0.000,     0.000,     0.000,     0.000,   5,0,0
 40001,'LD',1,   3,   1,    15.090,     0.520,     0.000,     0.000,     0.000,     0.000,   2,1,0
 40004,'LD',1,   3,   1,    34.220,     3.860,     0.000,     0.000,     0.000,     0.000,   2,1,0
 40204,'LD',1,   5,   1,    23.460,     2.810,     0.000,     0.000,     0.000,     0.000,   2,1,0
 40404,'LD',1,   2,   1,    26.880,     1.370,     0.000,     0.000,     0.000,     0.000,   2,1,0
 40602,'I ',1,   7,   2,     4.460,     1.330,     0.000,     0.000,     0.000,     0.000,   5,0,0
 40602,'LD',1,   7,   1,     3.340,    -0.390,     0.000,     0.000,     0.000,     0.000,   2,1,0
 40602,'MI',0,   7,   2,     0.830,     0.170,     0.000,     0.000,     0.000,     0.000,   5,0,0
 40801,'LD',1,  11,   1,    19.130,     2.560,     0.000,     0.000,     0.000,     0.000,   2,1,0
 41002,'I ',1,  11,   2,    32.000,     6.210,     0.000,     0.000,     0.000,     0.000,   5,0,0
 41002,'MI',0,  11,   2,    12.140,     2.520,     0.000,     0.000,     0.000,     0.000,   5,0,0
 41102,'I ',1,  11,   2,    43.000,     7.170,     0.000,     0.000,     0.000,     0.000,   5,0,0
 41102,'MI',0,  11,   2,    20.100,     3.500,     0.000,     0.000,     0.000,     0.000,   5,0,0
 42004,'LD',1,  11,   1,    46.450,     4.960,     0.000,     0.000,     0.000,     0.000,   2,1,0
 42101,'LD',1,  11,   1,    21.800,    -0.480,     0.000,     0.000,     0.000,     0.000,   2,1,0
 42204,'LD',1,   7,   1,    67.020,     8.310,     0.000,     0.000,     0.000,     0.000,   2,1,0
 42604,'LD',1,   8,   1,    24.880,     4.770,     0.000,     0.000,     0.000,     0.000,   2,1,0
 42802,'I ',1,  11,   2,    11.110,     2.630,     0.000,     0.000,     0.000,     0.000,   5,0,0
 42802,'MI',0,  11,   2,    14.890,     5.370,     0.000,     0.000,     0.000,     0.000,   5,0,0
 43604,'LD',1,   5,   1,    26.000,     0.510,     0.000,     0.000,     0.000,     0.000,   2,1,0
 44001,'LD',1,  11,   1,    28.350,     0.880,     0.000,     0.000,     0.000,     0.000,   2,1,0
 44804,'LD',1,  11,   1,    43.850,     2.660,     0.000,     0.000,     0.000,     0.000,   2,1,0
 44901,'LD',1,  11,   1,    14.180,    -0.480,     0.000,     0.000,     0.000,     0.000,   2,1,0
 45001,'I ',1,   7,   2,    18.000,     5.900,     0.000,     0.000,     0.000,     0.000,   5,0,0
 45001,'MI',0,   7,   2,    29.500,     4.100,     0.000,     0.000,     0.000,     0.000,   5,0,0
 45101,'LD',1,  11,   1,    15.940,     0.690,     0.000,     0.000,     0.000,     0.000,   2,1,0
 46210,'I ',1,  11,   2,    34.840,    14.000,     0.000,     0.000,     0.000,     0.000,   5,0,0
 46214,'I ',1,  11,   2,    34.840,    14.000,     0.000,     0.000,     0.000,     0.000,   5,0,0
 46224,'I ',1,  11,   2,    34.840,    14.000,     0.000,     0.000,     0.000,     0.000,   5,0,0
 46501,'LD',1,  11,   1,    11.410,     3.160,     0.000,     0.000,     0.000,     0.000,   2,1,0
 46804,'LD',1,   5,   1,    41.870,     1.170,     0.000,     0.000,     0.000,     0.000,   2,1,0
 46902,'I ',1,   7,   2,    12.800,     2.240,     0.000,     0.000,     0.000,     0.000,   5,0,0
 46902,'MI',0,   7,   2,    85.700,    15.020,     0.000,     0.000,     0.000,     0.000,   5,0,0
 47004,'LD',1,   3,   1,    39.510,     6.540,     0.000,     0.000,     0.000,     0.000,   2,1,0
 47402,'I ',1,  11,   2,     9.130,     1.430,     0.000,     0.000,     0.000,     0.000,   5,0,0
 47402,'MI',0,  11,   2,     6.060,     3.570,     0.000,     0.000,     0.000,     0.000,   5,0,0
 49001,'I ',1,   9,   2,     2.290,     0.700,     0.000,     0.000,     0.000,     0.000,   5,0,0
 49001,'MI',0,   9,   2,     1.000,     0.000,     0.000,     0.000,     0.000,     0.000,   5,0,0
 49504,'LD',1,   2,   1,    45.840,    -1.650,     0.000,     0.000,     0.000,     0.000,   2,1,0
 49604,'LD',1,   7,   1,    54.510,    10.330,     0.000,     0.000,     0.000,     0.000,   2,1,0
 49804,'LD',1,   2,   1,    54.190,     2.960,     0.000,     0.000,     0.000,     0.000,   2,1,0
 50004,'LD',1,   3,   1,    24.390,     3.360,     0.000,     0.000,     0.000,     0.000,   2,1,0
 50301,'LD',1,  11,   1,    10.660,    -0.060,     0.000,     0.000,     0.000,     0.000,   2,1,0
 50604,'LD',1,   9,   1,    22.680,     2.480,     0.000,     0.000,     0.000,     0.000,   2,1,0
 50901,'LD',1,   4,   1,    15.360,     1.000,     0.000,     0.000,     0.000,     0.000,   2,1,0
 51101,'I ',1,  11,   2,    13.970,     0.880,     0.000,     0.000,     0.000,     0.000,   5,0,0
...
0 / END OF LOAD DATA, BEGIN FIXED SHUNT DATA
  3934,'1 ',1,     0.000,     6.000
  3944,'1 ',1,     0.000,     6.000
  3954,'1 ',1,     0.000,     6.000
 13124,'1 ',1,     0.000,    10.000
 27361,'1 ',1,     0.000,     1.200
 33902,'1 ',1,     0.000,     6.000
 54630,'1 ',1,     0.000,   105.000
 54640,'1 ',1,     0.000,    41.000
0 / END OF FIXED SHUNT DATA, BEGIN GENERATOR DATA
 10271,'1 ',    21.000,    -2.750,    15.000,    -7.000,1.05000,  1021,    34.000, 0.00000E+0, 2.20000E-1, 0.00000E+0, 0.00000E+0,1.00000,1,   15.0,    21.000,     5.000,  13,1.0000
 10272,'2 ',    22.000,    -2.750,    15.000,    -7.000,1.05000,  1021,    34.000, 0.00000E+0, 2.20000E-1, 0.00000E+0, 0.00000E+0,1.00000,1,   15.0,    22.000,     5.000,  13,1.0000
 10273,'3 ',    19.000,    -2.750,    15.000,    -7.000,1.05000,  1021,    34.000, 0.00000E+0, 2.20000E-1, 0.00000E+0, 0.00000E+0,1.00000,1,   15.0,    19.000,     5.000,  13,1.0000
 10274,'4 ',    24.000,    -2.750,    15.000,    -7.000,1.05000,  1021,    34.000, 0.00000E+0, 2.20000E-1, 0.00000E+0, 0.00000E+0,1.00000,1,   15.0,    24.000,     5.000,  13,1.0000
 10275,'3 ',     7.125,     0.000,     0.000,     0.000,1.05000,     0,     8.350, 9.20000E-3, 2.00000E-1, 0.00000E+0, 0.00000E+0,1.00000,0,  100.0,     7.500,     0.000,  21,1.0000,   0,   1.0,   0,   1.0,   0,   1.0,3,-0.9800
 10276,'2 ',     0.627,     0.000,     0.000,     0.000,1.05000,     0,     0.850, 7.30000E-3, 2.00000E-1, 0.00000E+0, 0.00000E+0,1.00000,0,  100.0,     0.660,     0.000,  21,1.0000,   0,   1.0,   0,   1.0,   0,   1.0,3,-0.9800
 10401,'1 ',    18.050,     0.000,     0.000,     0.000,1.00000,     0,    20.000, 4.00000E-3, 8.33000E-1, 0.00000E+0, 0.00000E+0,1.00000,0,  100.0,    19.000,   -19.000,  14,1.0000,   0,   1.0,   0,   1.0,   0,   1.0,3,-0.9800
 10470,'1 ',   456.000,    19.361,   270.000,  -170.000,1.06000,  1042,   500.000, 2.70000E-3, 1.80000E-1, 0.00000E+0, 0.00000E+0,1.00000,1,  270.0,   456.690,   222.000,   9,1.0000
 10471,'1 ',   151.050,     0.000,    40.000,   -30.000,1.06000,  1042,   167.000, 0.00000E+0, 8.33000E-1, 0.00000E+0, 0.00000E+0,1.00000,0,  100.0,   159.000,  -159.000,  14,1.0000,   0,   1.0,   0,   1.0,   0,   1.0,1, 1.0000
 10472,'11',    90.000,     4.303,    60.000,   -30.000,1.06000,  1042,   100.900, 0.00000E+0, 1.25000E-1, 0.00000E+0, 0.00000E+0,1.00000,1,   60.0,    90.000,    13.000,   9,1.0000
 10473,'12',    90.000,     4.303,    60.000,   -30.000,1.06000,  1042,   100.900, 0.00000E+0, 1.25000E-1, 0.00000E+0, 0.00000E+0,1.00000,1,   60.0,    90.000,    13.000,   9,1.0000
 10474,'14',    90.000,     4.303,    60.000,   -30.000,1.06000,  1042,   100.900, 0.00000E+0, 1.25000E-1, 0.00000E+0, 0.00000E+0,1.00000,1,   60.0,    90.000,    13.000,   9,1.0000
 10671,'2 ',     4.560,    -1.940,    -1.940,    -1.940,1.04000,     0,     4.800, 2.04000E-2, 1.66000E-1, 0.00000E+0, 0.00000E+0,1.00000,0,  100.0,     4.800,     0.000,  20,1.0000,   0,   1.0,   0,   1.0,   0,   1.0,3,-0.9800
 10672,'3 ',     4.750,    -2.000,    -2.000,    -2.000,1.04000,     0,     6.000, 2.04000E-2, 1.66000E-1, 0.00000E+0, 0.00000E+0,1.00000,0,  100.0,     5.000,     0.000,  20,1.0000,   0,   1.0,   0,   1.0,   0,   1.0,3,-0.9800
 10673,'1 ',     1.140,    -0.480,    -0.480,    -0.480,1.05000,     0,     1.200, 2.04000E-2, 1.66000E-1, 0.00000E+0, 0.00000E+0,1.00000,0,  100.0,     1.200,     0.000,  20,1.0000,   0,   1.0,   0,   1.0,   0,   1.0,3,-0.9800
 10674,'5 ',     4.370,     0.000,    -1.770,    -2.300,1.04000,     0,     4.600, 2.57000E-2, 1.66000E-1, 0.00000E+0, 0.00000E+0,1.00000,0,  100.0,     4.600,     0.000,  20,1.0000,   0,   1.0,   0,   1.0,   0,   1.0,3,-0.9800
 11204,'1 ',     0.950,     0.000,    -0.810,    -0.810,1.00000,     0,     1.600, 0.00000E+0, 2.00000E-1, 1.00000E-2, 6.00000E-2,1.00000,0,  100.0,     1.000,     0.000,  15,1.0000
 11271,'1 ',    23.940,     0.000,     0.000,     0.000,1.04000,     0,    28.000, 3.20000E-3, 2.00000E-1, 0.00000E+0, 0.00000E+0,1.00000,0,  100.0,    25.200,     0.000,  20,1.0000,   0,   1.0,   0,   1.0,   0,   1.0,3,-0.9800
 11272,'1 ',     3.800,     0.000,     0.000,     0.000,1.00000,     0,     4.170, 2.54000E-1, 8.33000E-1, 0.00000E+0, 0.00000E+0,1.00000,0,  100.0,     4.000,     0.000,  23,1.0000,   0,   1.0,   0,   1.0,   0,   1.0,3,-0.9800
 11303,'1 ',    10.450,     0.000,    10.000,    -8.000,1.05000,  1131,    12.000, 3.20000E-3, 8.33000E-1, 0.00000E+0, 1.00000E-1,1.00000,0,    6.0,    11.000,   -11.000,  14,1.0000,   0,   1.0,   0,   1.0,   0,   1.0,1, 1.0000
 11371,'1 ',    32.632,     0.000,    13.000,   -18.000,1.05000,  1131,    34.350, 7.10000E-3, 2.00000E-1, 0.00000E+0, 0.00000E+0,1.00000,0,   11.0,    34.350,     0.000,  17,1.0000,   0,   1.0,   0,   1.0,   0,   1.0,1, 1.0000
 11372,'1 ',    21.993,     0.000,     6.155,    -6.155,1.05000,  1131,    23.150, 3.20000E-3, 2.00000E-1, 0.00000E+0, 0.00000E+0,1.00000,0,    6.0,    23.150,     0.000,  17,1.0000,   0,   1.0,   0,   1.0,   0,   1.0,1, 1.0000
 12101,'XX',     0.000,   -74.311,   100.000,  -100.000,1.05000,  1211,   100.000, 0.00000E+0, 8.33000E-1, 0.00000E+0, 0.00000E+0,1.00000,1,  100.0,     0.000,     0.000,  25,1.0000,   0,   1.0,   0,   1.0,   0,   1.0,1, 1.0000
 12371,'1 ',    29.925,     0.000,     7.000,    -7.000,1.05000,  1231,    32.000, 2.57000E-2, 8.33000E-1, 0.00000E+0, 0.00000E+0,1.00000,0,    7.0,    31.500,     0.000,  17,1.0000,   0,   1.0,   0,   1.0,   0,   1.0,1, 1.0000
 12372,'2 ',     9.975,     0.000,     3.000,    -3.000,1.05000,  1231,    10.500, 2.57000E-2, 8.33000E-1, 0.00000E+0, 0.00000E+0,1.00000,0,  100.0,    10.500,     0.000,  17,1.0000,   0,   1.0,   0,   1.0,   0,   1.0,1, 1.0000
 12571,'1 ',    18.478,     0.000,     0.000,     0.000,1.05000,  1251,    21.710, 9.20000E-3, 2.00000E-1, 0.00000E+0, 0.00000E+0,1.00000,0,  100.0,    19.450,     0.000,  17,1.0000,   0,   1.0,   0,   1.0,   0,   1.0,1, 1.0000
 12572,'1 ',    11.400,     0.000,     0.986,    -0.986,1.05000,  1251,    12.000, 2.52000E-2, 8.33000E-1, 0.00000E+0, 0.00000E+0,1.00000,0,  100.0,    12.000,     0.000,  17,1.0000,   0,   1.0,   0,   1.0,   0,   1.0,3,-0.9800
 12574,'1 ',    12.729,     0.000,    -1.360,    -1.360,1.05000,     0,    14.000, 3.20000E-3, 8.33000E-1, 0.00000E+0, 0.00000E+0,1.00000,0,  100.0,    13.399,     0.000,  17,1.0000,   0,   1.0,   0,   1.0,   0,   1.0,3,-0.9800
 12771,'1 ',     9.500,     0.000,     0.000,     0.000,1.00000,     0,    10.000, 8.80000E-3, 8.33000E-1, 0.00000E+0, 0.00000E+0,1.00000,0,  100.0,    10.000,     0.000,  23,1.0000,   0,   1.0,   0,   1.0,   0,   1.0,3,-0.9800
 12872,'DW',     7.980,     0.000,     0.000,    -2.761,1.05000,     0,     9.200, 2.57000E-2, 2.00000E-1, 0.00000E+0, 0.00000E+0,1.00000,0,  100.0,     8.400,     0.000,  20,1.0000,   0,   1.0,   0,   1.0,   0,   1.0,3,-0.9800
 12873,'1 ',    18.573,     0.000,     0.000,     0.000,1.05000,     0,    20.700, 2.57000E-2, 2.00000E-1, 0.00000E+0, 0.00000E+0,1.00000,0,  100.0,    19.550,     0.000,  20,1.0000,   0,   1.0,   0,   1.0,   0,   1.0,3,-0.9800
 12874,'1 ',     8.075,     0.000,     0.000,     0.000,1.05000,     0,     8.500, 2.10000E-3, 1.66000E-1, 0.00000E+0, 0.00000E+0,1.00000,0,  100.0,     8.500,     0.000,  20,1.0000,   0,   1.0,   0,   1.0,   0,   1.0,3,-0.9800
 13011,'1 ',     7.600,     0.000,     0.000,     0.000,1.00000,     0,     8.500, 2.00000E-2, 8.33000E-1, 0.00000E+0, 0.00000E+0,1.00000,0,  100.0,     8.000,     0.000,  23,1.0000,   0,   1.0,   0,   1.0,   0,   1.0,3,-0.9800
 13170,'1 ',    33.678,     0.000,    -3.570,    -3.570,1.05000,     0,    35.500, 2.57000E-2, 8.33000E-1, 0.00000E+0, 0.00000E+0,1.00000,0,  100.0,    35.450,     0.000,  19,1.0000,   0,   1.0,   0,   1.0,   0,   1.0,2, 0.9600
 13171,'1 ',    17.575,     0.000,    -1.010,    -1.010,1.05000,     0,    18.800, 9.00000E-3, 2.00000E-1, 0.00000E+0, 0.00000E+0,1.00000,0,  100.0,    18.500,     0.000,  20,1.0000,   0,   1.0,   0,   1.0,   0,   1.0,3,-0.9800
 13172,'1 ',     3.610,     0.000,    -1.030,    -1.030,1.05000,     0,     4.000, 3.20000E-3, 8.33000E-1, 0.00000E+0, 0.00000E+0,1.00000,0,  100.0,     3.800,     0.000,  19,1.0000,   0,   1.0,   0,   1.0,   0,   1.0,3,-0.9800
 13271,'1 ',     4.000,    -0.812,    -0.812,    -0.812,1.00000,     0,     5.000, 0.00000E+0, 1.54000E-1, 0.00000E+0, 0.00000E+0,1.00000,1,  100.0,     4.999,     2.000,  15,1.0000,   0,   1.0,   0,   1.0,   0,   1.0,3,-0.9800
 13371,'1 ',    57.000,     0.000,    20.000,   -20.000,1.06000,  1331,    61.000, 8.80000E-3, 8.33000E-1, 0.00000E+0, 0.00000E+0,1.00000,0,   30.0,    60.000,     0.000,  23,1.0000,   0,   1.0,   0,   1.0,   0,   1.0,1, 1.0000
 13434,'10',     4.300,    -0.873,    -0.873,    -0.873,1.00000,     0,     4.500, 0.00000E+0, 2.00000E-1, 0.00000E+0, 1.00000E-1,1.00000,1,  100.0,     4.300,     0.000,  13,1.0000,   0,   1.0,   0,   1.0,   0,   1.0,3,-0.9800
 13471,'1 ',     0.627,     0.000,    -0.220,    -0.220,1.05000,     0,     0.660, 2.04000E-2, 2.00000E-1, 0.00000E+0, 0.00000E+0,1.00000,0,  100.0,     0.660,     0.000,  22,1.0000,   0,   1.0,   0,   1.0,   0,   1.0,3,-0.9800
 13472,'DW',     2.422,     0.000,    -0.720,    -0.720,1.05000,     0,     2.700, 3.02000E-2, 8.33000E-1, 0.00000E+0, 0.00000E+0,1.00000,0,  100.0,     2.550,     0.000,  21,1.0000,   0,   1.0,   0,   1.0,   0,   1.0,3,-0.9800
 13473,'4 ',     9.491,     0.000,     0.000,     0.000,1.05000,     0,    15.100, 3.20000E-3, 2.00000E-1, 0.00000E+0, 0.00000E+0,1.00000,0,  100.0,     9.990,     0.000,  20,1.0000,   0,   1.0,   0,   1.0,   0,   1.0,3,-0.9800
 13474,'1 ',     5.700,     0.000,     0.000,     0.000,1.05000,     0,     6.900, 2.57000E-2, 8.33000E-1, 0.00000E+0, 0.00000E+0,1.00000,0,  100.0,     6.000,     0.000,  18,1.0000,   0,   1.0,   0,   1.0,   0,   1.0,3,-0.9800
 13475,'6 ',     7.267,     0.000,     0.000,     0.000,1.05000,  1701,     7.680, 3.20000E-3, 2.00000E-1, 0.00000E+0, 0.00000E+0,1.00000,0,  100.0,     7.650,     0.000,  21,1.0000,   0,   1.0,   0,   1.0,   0,   1.0,3,-0.9800
 13476,'3 ',    11.305,     0.000,    -3.260,    -3.260,1.05000,     0,    12.000, 2.57000E-2, 8.33000E-1, 0.00000E+0, 0.00000E+0,1.00000,0,  100.0,    11.900,     0.000,  21,1.0000,   0,   1.0,   0,   1.0,   0,   1.0,3,-0.9800
 13477,'2 ',     2.422,     0.000,    -0.720,    -0.720,1.05000,     0,     2.700, 3.02000E-2, 8.33000E-1, 0.00000E+0, 0.00000E+0,1.00000,0,  100.0,     2.550,     0.000,  21,1.0000,   0,   1.0,   0,   1.0,   0,   1.0,3,-0.9800
 13479,'9 ',     3.230,     0.000,     0.000,     0.000,1.00000,     0,     3.400, 7.30000E-3, 8.33000E-1, 0.00000E+0, 0.00000E+0,1.00000,0,  100.0,     3.400,     0.000,  20,1.0000,   0,   1.0,   0,   1.0,   0,   1.0,3,-0.9800
 13872,'1 ',     1.900,     0.000,     0.000,     0.000,1.00000,     0,     2.000, 1.00000E-4, 8.33000E-1, 0.00000E+0, 0.00000E+0,1.00000,0,  100.0,     2.000,     0.000,  21,1.0000,   0,   1.0,   0,   1.0,   0,   1.0,3,-0.9800
 14073,'3 ',     6.128,    -2.400,    -2.400,    -2.400,1.04000,     0,     7.611, 2.04000E-2, 1.66000E-1, 0.00000E+0, 0.00000E+0,1.00000,0,  100.0,     6.450,     0.000,  20,1.0000,   0,   1.0,   0,   1.0,   0,   1.0,3,-0.9800
 14304,'1 ',     7.125,     0.000,     1.730,    -1.730,1.05000,     0,     8.500, 0.00000E+0, 1.50000E-1, 0.00000E+0, 1.00000E-1,1.00000,0,  100.0,     7.500,     2.000,  15,1.0000,   0,   1.0,   0,   1.0,   0,   1.0,3,-0.9800
 14471,'1 ',     3.800,     0.000,     0.000,     0.000,1.04000,     0,     4.000, 3.20000E-3, 2.00000E-1, 0.00000E+0, 0.00000E+0,1.00000,0,  100.0,     4.000,     0.000,  21,1.0000,   0,   1.0,   0,   1.0,   0,   1.0,3,-0.9800
 14472,'1 ',     0.808,     0.000,     0.000,     0.000,1.00000,     0,     0.850, 2.10000E-3, 2.00000E-1, 0.00000E+0, 0.00000E+0,1.00000,0,  100.0,     0.850,     0.000,  21,1.0000,   0,   1.0,   0,   1.0,   0,   1.0,3,-0.9800
 14474,'1 ',     8.312,     0.000,     0.000,    -2.876,1.00000,     0,    10.000, 9.00000E-3, 2.00000E-1, 0.00000E+0, 0.00000E+0,1.00000,0,  100.0,     8.750,     0.000,  21,1.0000,   0,   1.0,   0,   1.0,   0,   1.0,3,-0.9800
 14871,'1 ',     1.615,     0.000,     0.000,     0.000,1.05000,     0,     4.600, 2.57000E-2, 2.00000E-1, 0.00000E+0, 0.00000E+0,1.00000,0,  100.0,     1.700,     0.000,  21,1.0000,   0,   1.0,   0,   1.0,   0,   1.0,3,-0.9800
 14971,'1 ',    80.750,     0.000,    27.000,   -27.000,1.00000,     0,    90.000, 2.00000E-2, 8.33000E-1, 0.00000E+0, 0.00000E+0,1.00000,0,  100.0,    85.000,     0.000,  23,1.0000,   0,   1.0,   0,   1.0,   0,   1.0,1, 1.0000
 15112,'1 ',    11.400,     0.000,     0.000,     0.000,1.05000,  1511,    13.360, 3.20000E-3, 8.33000E-1, 0.00000E+0, 6.00000E-2,1.00000,0,  100.0,    12.000,     0.000,  19,1.0000,   0,   1.0,   0,   1.0,   0,   1.0,3,-0.9800
 15171,'TW',    43.700,     0.000,    15.119,   -15.119,1.05000,  1511,    46.000, 9.00000E-3, 8.33000E-1, 0.00000E+0, 0.00000E+0,1.00000,0,   15.0,    46.000,     0.000,  17,1.0000,   0,   1.0,   0,   1.0,   0,   1.0,1, 1.0000
 15172,'DW',    11.922,     0.000,     3.287,    -3.287,1.00000,     0,    12.800, 9.00000E-3, 8.33000E-1, 0.00000E+0, 0.00000E+0,1.00000,0,  100.0,    12.550,     0.000,  19,1.0000,   0,   1.0,   0,   1.0,   0,   1.0,3,-0.9800
 15174,'DW',    19.000,     0.000,     6.574,    -6.574,1.00000,     0,    20.000, 9.00000E-3, 8.33000E-1, 0.00000E+0, 0.00000E+0,1.00000,0,  100.0,    20.000,     0.000,  19,1.0000,   0,   1.0,   0,   1.0,   0,   1.0,3,-0.9800
 15175,'1 ',     9.499,     0.000,     0.000,     0.000,1.05000,  1511,    11.133, 3.20000E-3, 8.33000E-1, 0.00000E+0, 0.00000E+0,1.00000,0,  100.0,     9.999,     0.000,  21,1.0000,   0,   1.0,   0,   1.0,   0,   1.0,1,-0.9800
 15271,'1 ',    53.580,     0.000,    19.000,   -19.000,1.05000,  1521,    56.400, 3.20000E-3, 8.33000E-1, 0.00000E+0, 0.00000E+0,1.00000,0,   19.0,    56.400,     0.000,  17,1.0000,   0,   1.0,   0,   1.0,   0,   1.0,1, 1.0000
 15472,'1 ',     8.550,     0.000,    -0.810,    -0.810,1.00000,     0,     9.000, 2.52000E-2, 8.33000E-1, 0.00000E+0, 0.00000E+0,1.00000,0,  100.0,     9.000,    -9.000,  14,1.0000,   0,   1.0,   0,   1.0,   0,   1.0,3,-0.9800
 15473,'1 ',     3.800,     0.000,     0.000,     0.000,1.00000,     0,     4.000, 8.80000E-3, 8.33000E-1, 0.00000E+0, 0.00000E+0,1.00000,0,  100.0,     4.000,     0.000,  23,1.0000,   0,   1.0,   0,   1.0,   0,   1.0,3,-0.9800
 15571,'1 ',     5.130,     0.000,    -0.610,    -0.610,1.00000,     0,     5.400, 7.30000E-3, 8.33000E-1, 0.00000E+0, 0.00000E+0,1.00000,0,  100.0,     5.400,     0.000,  17,1.0000,   0,   1.0,   0,   1.0,   0,   1.0,3,-0.9800
 15571,'2 ',    11.400,     0.000,    -0.610,    -0.610,1.00000,     0,    12.500, 7.30000E-3, 8.33000E-1, 0.00000E+0, 0.00000E+0,1.00000,0,  100.0,    12.000,     0.000,  17,1.0000,   0,   1.0,   0,   1.0,   0,   1.0,3,-0.9800
 15571,'DW',     5.653,     0.000,    -0.610,    -0.610,1.00000,     0,     7.000, 7.30000E-3, 8.33000E-1, 0.00000E+0, 0.00000E+0,1.00000,0,  100.0,     5.950,     0.000,  17,1.0000,   0,   1.0,   0,   1.0,   0,   1.0,3,-0.9800
 15572,'1 ',    62.415,     0.000,    20.000,   -22.400,1.05000,  1551,    65.700, 2.57000E-2, 2.00000E-1, 0.00000E+0, 0.00000E+0,1.00000,0,   15.0,    65.700,     0.000,  17,1.0000,   0,   1.0,   0,   1.0,   0,   1.0,1, 1.0000
 15573,'1 ',    19.000,     0.000,    -2.020,    -2.020,1.00000,     0,    23.000, 2.57000E-2, 8.33000E-1, 0.00000E+0, 0.00000E+0,1.00000,0,  100.0,    20.000,     0.000,  19,1.0000,   0,   1.0,   0,   1.0,   0,   1.0,1, 1.0000
 15574,'1 ',    54.150,     0.000,    18.735,   -18.735,1.05000,  1551,    59.375, 9.00000E-3, 2.00000E-1, 0.00000E+0, 0.00000E+0,1.00000,0,   18.0,    57.000,     0.000,  17,1.0000,   0,   1.0,   0,   1.0,   0,   1.0,1, 1.0000
 15771,'1 ',     1.881,     0.000,    -0.550,    -0.550,1.04000,     0,     1.980, 2.04000E-2, 2.00000E-1, 0.00000E+0, 0.00000E+0,1.00000,0,  100.0,     1.980,     0.000,  20,1.0000,   0,   1.0,   0,   1.0,   0,   1.0,3,-0.9800
 15772,'1 ',     2.850,     0.000,    -0.820,    -0.820,1.04000,     0,     3.000, 2.04000E-2, 2.00000E-1, 0.00000E+0, 0.00000E+0,1.00000,0,  100.0,     3.000,     0.000,  20,1.0000,   0,   1.0,   0,   1.0,   0,   1.0,3,-0.9800
 16371,'1 ',     3.230,     0.000,     0.000,     0.000,1.00000,     0,     3.400, 7.30000E-3, 2.00000E-1, 0.00000E+0, 0.00000E+0,1.00000,0,  100.0,     3.400,     0.000,  19,1.0000,   0,   1.0,   0,   1.0,   0,   1.0,3,-0.9800
 16372,'2 ',     3.230,     0.000,     0.000,     0.000,1.00000,     0,     3.400, 7.30000E-3, 2.00000E-1, 0.00000E+0, 0.00000E+0,1.00000,0,  100.0,     3.400,     0.000,  19,1.0000,   0,   1.0,   0,   1.0,   0,   1.0,3,-0.9800
 16373,'3 ',     6.460,     0.000,     0.000,     0.000,1.00000,     0,     6.800, 7.30000E-3, 2.00000E-1, 0.00000E+0, 0.00000E+0,1.00000,0,  100.0,     6.800,     0.000,  19,1.0000,   0,   1.0,   0,   1.0,   0,   1.0,2, 0.9800
 16374,'4 ',     7.267,     0.000,     0.000,     0.000,1.00000,     0,     7.660, 2.10000E-3, 1.66000E-1, 0.00000E+0, 0.00000E+0,1.00000,0,  100.0,     7.650,     0.000,  19,1.0000,   0,   1.0,   0,   1.0,   0,   1.0,1, 1.0000
 16375,'1 ',     3.762,     0.000,     0.000,     0.000,1.00000,     0,     4.250, 2.10000E-3, 1.66000E-1, 0.00000E+0, 0.00000E+0,1.00000,0,  100.0,     3.960,     0.000,  19,1.0000,   0,   1.0,   0,   1.0,   0,   1.0,3,-0.9800
 16376,'6 ',     4.702,     0.000,     0.000,     0.000,1.00000,     0,     5.100, 2.10000E-3, 2.00000E-1, 0.00000E+0, 0.00000E+0,1.00000,0,  100.0,     4.950,     0.000,  19,1.0000,   0,   1.0,   0,   1.0,   0,   1.0,3,-0.9800
 16377,'1 ',     8.550,     0.000,     0.000,     0.000,1.00000,     0,     9.200, 2.57000E-2, 8.33000E-1, 0.00000E+0, 0.00000E+0,1.00000,0,  100.0,     9.000,     0.000,  19,1.0000,   0,   1.0,   0,   1.0,   0,   1.0,2, 0.9800
 16378,'1 ',     1.518,     0.000,     0.000,     0.000,1.00000,     0,     1.700, 2.10000E-3, 2.00000E-1, 0.00000E+0, 0.00000E+0,1.00000,0,  100.0,     1.598,     0.000,  19,1.0000,   0,   1.0,   0,   1.0,   0,   1.0,3,-0.9800
 16379,'2 ',     0.275,     0.000,     0.000,     0.000,1.00000,     0,     0.323, 3.20000E-3, 1.66000E-1, 0.00000E+0, 0.00000E+0,1.00000,0,  100.0,     0.290,     0.000,  19,1.0000,   0,   1.0,   0,   1.0,   0,   1.0,3,-0.9800
 16382,'1 ',     9.714,     0.000,     0.000,     0.000,1.00000,     0,    11.500, 2.57000E-2, 8.33000E-1, 0.00000E+0, 0.00000E+0,1.00000,0,  100.0,    10.225,     0.000,  19,1.0000,   0,   1.0,   0,   1.0,   0,   1.0,3,-0.9800
 16392,'1 ',    11.381,     0.000,     0.000,     0.000,1.00000,     0,    13.800, 2.57000E-2, 8.33000E-1, 0.00000E+0, 0.00000E+0,1.00000,0,  100.0,    11.980,     0.000,  19,1.0000,   0,   1.0,   0,   1.0,   0,   1.0,3,-0.9800
 16571,'1 ',    35.910,     0.000,    13.000,   -13.000,1.05000,  1651,    40.000, 2.57000E-2, 8.33000E-1, 0.00000E+0, 0.00000E+0,1.00000,0,  100.0,    37.800,     0.000,  17,1.0000,   0,   1.0,   0,   1.0,   0,   1.0,1, 1.0000
 16572,'1 ',    32.300,     0.000,     0.000,     0.000,1.00000,     0,    35.000, 8.80000E-3, 8.33000E-1, 0.00000E+0, 0.00000E+0,1.00000,0,  100.0,    34.000,     0.000,  23,1.0000,   0,   1.0,   0,   1.0,   0,   1.0,2, 0.9600
 16670,'1 ',     4.418,     0.000,     0.000,    -3.073,1.00000,     0,     4.700, 3.02000E-2, 8.33000E-1, 0.00000E+0, 0.00000E+0,1.00000,0,  100.0,     4.650,     0.000,  21,1.0000,   0,   1.0,   0,   1.0,   0,   1.0,3,-0.9800
 16671,'1 ',     3.230,    -0.800,     0.000,     0.000,1.04000,     0,     3.400, 7.30000E-3, 2.00000E-1, 0.00000E+0, 0.00000E+0,1.00000,0,  100.0,     3.400,     0.000,  21,1.0000,   0,   1.0,   0,   1.0,   0,   1.0,3,-0.9800
 16672,'2 ',     1.510,     0.000,    -0.560,    -0.560,1.04000,     0,     1.700, 7.30000E-3, 8.33000E-1, 0.00000E+0, 0.00000E+0,1.00000,0,  100.0,     1.590,     0.000,  21,1.0000,   0,   1.0,   0,   1.0,   0,   1.0,3,-0.9800
 16674,'1 ',    17.765,     0.000,     0.000,     0.000,1.04000,     0,    18.700, 7.30000E-3, 2.00000E-1, 0.00000E+0, 0.00000E+0,1.00000,0,  100.0,    18.700,     0.000,  20,1.0000,   0,   1.0,   0,   1.0,   0,   1.0,3,-0.9800
...